Version 4
SHEET 1 880 680
WIRE 16 96 -128 96
WIRE 64 96 16 96
WIRE 320 96 256 96
WIRE 432 96 320 96
WIRE 448 96 432 96
WIRE -128 128 -128 96
WIRE 320 128 320 96
WIRE 432 128 432 96
WIRE 16 208 16 96
WIRE 64 208 16 208
WIRE -128 288 -128 208
WIRE 160 288 160 256
WIRE 320 288 320 192
WIRE 432 288 432 208
FLAG -128 288 0
FLAG 160 288 0
FLAG 320 288 0
FLAG 432 288 0
FLAG 448 96 LDO_OUT
IOPIN 448 96 Out
SYMBOL PowerProducts\\ADP121-3.3 160 208 R0
SYMATTR InstName U1
SYMBOL cap 304 128 R0
SYMATTR InstName C1
SYMATTR Value 1µ
SYMATTR SpiceLine V=16 Irms=0 Rser=0.0237 Lser=872p mfg="Würth Elektronik" pn="885382207001 WCAP-CSST 0805" type="X7R"
SYMBOL res 416 112 R0
SYMATTR InstName R1
SYMATTR Value 330
SYMBOL voltage -128 112 R0
WINDOW 123 0 0 Left 0
WINDOW 39 0 0 Left 0
SYMATTR InstName V1
SYMATTR Value 5
TEXT -154 344 Left 2 !.noise V(LDO_OUT) V1 dec 100 10 100k
